* NGSPICE file created from Modulator.ext - technology: sky130A

* Black-box entry subcircuit for sky130_ef_sc_hd__decap_12 abstract view
.subckt sky130_ef_sc_hd__decap_12 VGND VPWR VPB VNB
.ends

* Black-box entry subcircuit for sky130_fd_sc_hd__decap_4 abstract view
.subckt sky130_fd_sc_hd__decap_4 VGND VNB VPB VPWR
.ends

* Black-box entry subcircuit for sky130_fd_sc_hd__decap_8 abstract view
.subckt sky130_fd_sc_hd__decap_8 VGND VNB VPB VPWR
.ends

* Black-box entry subcircuit for sky130_fd_sc_hd__decap_3 abstract view
.subckt sky130_fd_sc_hd__decap_3 VGND VNB VPB VPWR
.ends

* Black-box entry subcircuit for sky130_fd_sc_hd__clkbuf_1 abstract view
.subckt sky130_fd_sc_hd__clkbuf_1 A VGND VNB VPB VPWR X
.ends

* Black-box entry subcircuit for sky130_fd_sc_hd__tapvpwrvgnd_1 abstract view
.subckt sky130_fd_sc_hd__tapvpwrvgnd_1 VGND VPWR
.ends

* Black-box entry subcircuit for sky130_fd_sc_hd__fill_2 abstract view
.subckt sky130_fd_sc_hd__fill_2 VGND VNB VPB VPWR
.ends

* Black-box entry subcircuit for sky130_fd_sc_hd__inv_2 abstract view
.subckt sky130_fd_sc_hd__inv_2 A VGND VNB VPB VPWR Y
.ends

* Black-box entry subcircuit for sky130_fd_sc_hd__and3_1 abstract view
.subckt sky130_fd_sc_hd__and3_1 A B C VGND VNB VPB VPWR X
.ends

* Black-box entry subcircuit for sky130_fd_sc_hd__a21oi_1 abstract view
.subckt sky130_fd_sc_hd__a21oi_1 A1 A2 B1 VGND VNB VPB VPWR Y
.ends

* Black-box entry subcircuit for sky130_fd_sc_hd__dfstp_1 abstract view
.subckt sky130_fd_sc_hd__dfstp_1 CLK D SET_B VGND VNB VPB VPWR Q
.ends

* Black-box entry subcircuit for sky130_fd_sc_hd__nand2_1 abstract view
.subckt sky130_fd_sc_hd__nand2_1 A B VGND VNB VPB VPWR Y
.ends

* Black-box entry subcircuit for sky130_fd_sc_hd__fill_1 abstract view
.subckt sky130_fd_sc_hd__fill_1 VGND VNB VPB VPWR
.ends

* Black-box entry subcircuit for sky130_fd_sc_hd__nor2_1 abstract view
.subckt sky130_fd_sc_hd__nor2_1 A B VGND VNB VPB VPWR Y
.ends

* Black-box entry subcircuit for sky130_fd_sc_hd__a22o_1 abstract view
.subckt sky130_fd_sc_hd__a22o_1 A1 A2 B1 B2 VGND VNB VPB VPWR X
.ends

* Black-box entry subcircuit for sky130_fd_sc_hd__or4_2 abstract view
.subckt sky130_fd_sc_hd__or4_2 A B C D VGND VNB VPB VPWR X
.ends

* Black-box entry subcircuit for sky130_fd_sc_hd__dfstp_2 abstract view
.subckt sky130_fd_sc_hd__dfstp_2 CLK D SET_B VGND VNB VPB VPWR Q
.ends

* Black-box entry subcircuit for sky130_fd_sc_hd__and2_1 abstract view
.subckt sky130_fd_sc_hd__and2_1 A B VGND VNB VPB VPWR X
.ends

* Black-box entry subcircuit for sky130_fd_sc_hd__buf_2 abstract view
.subckt sky130_fd_sc_hd__buf_2 A VGND VNB VPB VPWR X
.ends

* Black-box entry subcircuit for sky130_fd_sc_hd__and2b_1 abstract view
.subckt sky130_fd_sc_hd__and2b_1 A_N B VGND VNB VPB VPWR X
.ends

* Black-box entry subcircuit for sky130_fd_sc_hd__o31a_1 abstract view
.subckt sky130_fd_sc_hd__o31a_1 A1 A2 A3 B1 VGND VNB VPB VPWR X
.ends

* Black-box entry subcircuit for sky130_fd_sc_hd__or3b_1 abstract view
.subckt sky130_fd_sc_hd__or3b_1 A B C_N VGND VNB VPB VPWR X
.ends

* Black-box entry subcircuit for sky130_fd_sc_hd__a21o_1 abstract view
.subckt sky130_fd_sc_hd__a21o_1 A1 A2 B1 VGND VNB VPB VPWR X
.ends

* Black-box entry subcircuit for sky130_fd_sc_hd__decap_6 abstract view
.subckt sky130_fd_sc_hd__decap_6 VGND VNB VPB VPWR
.ends

* Black-box entry subcircuit for sky130_fd_sc_hd__dlygate4sd3_1 abstract view
.subckt sky130_fd_sc_hd__dlygate4sd3_1 A VGND VNB VPB VPWR X
.ends

* Black-box entry subcircuit for sky130_fd_sc_hd__buf_4 abstract view
.subckt sky130_fd_sc_hd__buf_4 A VGND VNB VPB VPWR X
.ends

* Black-box entry subcircuit for sky130_fd_sc_hd__or2_1 abstract view
.subckt sky130_fd_sc_hd__or2_1 A B VGND VNB VPB VPWR X
.ends

* Black-box entry subcircuit for sky130_fd_sc_hd__clkbuf_4 abstract view
.subckt sky130_fd_sc_hd__clkbuf_4 A VGND VNB VPB VPWR X
.ends

* Black-box entry subcircuit for sky130_fd_sc_hd__dfrtp_4 abstract view
.subckt sky130_fd_sc_hd__dfrtp_4 CLK D RESET_B VGND VNB VPB VPWR Q
.ends

* Black-box entry subcircuit for sky130_fd_sc_hd__mux4_1 abstract view
.subckt sky130_fd_sc_hd__mux4_1 A0 A1 A2 A3 S0 S1 VGND VNB VPB VPWR X
.ends

* Black-box entry subcircuit for sky130_fd_sc_hd__a31o_1 abstract view
.subckt sky130_fd_sc_hd__a31o_1 A1 A2 A3 B1 VGND VNB VPB VPWR X
.ends

* Black-box entry subcircuit for sky130_fd_sc_hd__mux2_1 abstract view
.subckt sky130_fd_sc_hd__mux2_1 A0 A1 S VGND VNB VPB VPWR X
.ends

* Black-box entry subcircuit for sky130_fd_sc_hd__or4b_2 abstract view
.subckt sky130_fd_sc_hd__or4b_2 A B C D_N VGND VNB VPB VPWR X
.ends

* Black-box entry subcircuit for sky130_fd_sc_hd__nor2b_2 abstract view
.subckt sky130_fd_sc_hd__nor2b_2 A B_N VGND VNB VPB VPWR Y
.ends

* Black-box entry subcircuit for sky130_fd_sc_hd__a32o_1 abstract view
.subckt sky130_fd_sc_hd__a32o_1 A1 A2 A3 B1 B2 VGND VNB VPB VPWR X
.ends

* Black-box entry subcircuit for sky130_fd_sc_hd__or2b_1 abstract view
.subckt sky130_fd_sc_hd__or2b_1 A B_N VGND VNB VPB VPWR X
.ends

* Black-box entry subcircuit for sky130_fd_sc_hd__clkbuf_2 abstract view
.subckt sky130_fd_sc_hd__clkbuf_2 A VGND VNB VPB VPWR X
.ends

* Black-box entry subcircuit for sky130_fd_sc_hd__o22a_1 abstract view
.subckt sky130_fd_sc_hd__o22a_1 A1 A2 B1 B2 VGND VNB VPB VPWR X
.ends

* Black-box entry subcircuit for sky130_fd_sc_hd__dfrtp_1 abstract view
.subckt sky130_fd_sc_hd__dfrtp_1 CLK D RESET_B VGND VNB VPB VPWR Q
.ends

* Black-box entry subcircuit for sky130_fd_sc_hd__xor2_1 abstract view
.subckt sky130_fd_sc_hd__xor2_1 A B VGND VNB VPB VPWR X
.ends

* Black-box entry subcircuit for sky130_fd_sc_hd__or3_1 abstract view
.subckt sky130_fd_sc_hd__or3_1 A B C VGND VNB VPB VPWR X
.ends

* Black-box entry subcircuit for sky130_fd_sc_hd__xnor2_1 abstract view
.subckt sky130_fd_sc_hd__xnor2_1 A B VGND VNB VPB VPWR Y
.ends

* Black-box entry subcircuit for sky130_fd_sc_hd__a21boi_1 abstract view
.subckt sky130_fd_sc_hd__a21boi_1 A1 A2 B1_N VGND VNB VPB VPWR Y
.ends

* Black-box entry subcircuit for sky130_fd_sc_hd__o21ai_1 abstract view
.subckt sky130_fd_sc_hd__o21ai_1 A1 A2 B1 VGND VNB VPB VPWR Y
.ends

* Black-box entry subcircuit for sky130_fd_sc_hd__a211oi_1 abstract view
.subckt sky130_fd_sc_hd__a211oi_1 A1 A2 B1 C1 VGND VNB VPB VPWR Y
.ends

* Black-box entry subcircuit for sky130_fd_sc_hd__a221o_1 abstract view
.subckt sky130_fd_sc_hd__a221o_1 A1 A2 B1 B2 C1 VGND VNB VPB VPWR X
.ends

* Black-box entry subcircuit for sky130_fd_sc_hd__buf_1 abstract view
.subckt sky130_fd_sc_hd__buf_1 A VGND VNB VPB VPWR X
.ends

* Black-box entry subcircuit for sky130_fd_sc_hd__dfrtp_2 abstract view
.subckt sky130_fd_sc_hd__dfrtp_2 CLK D RESET_B VGND VNB VPB VPWR Q
.ends

* Black-box entry subcircuit for sky130_fd_sc_hd__clkbuf_16 abstract view
.subckt sky130_fd_sc_hd__clkbuf_16 A VGND VNB VPB VPWR X
.ends

* Black-box entry subcircuit for sky130_fd_sc_hd__o31ai_1 abstract view
.subckt sky130_fd_sc_hd__o31ai_1 A1 A2 A3 B1 VGND VNB VPB VPWR Y
.ends

* Black-box entry subcircuit for sky130_fd_sc_hd__a2bb2o_1 abstract view
.subckt sky130_fd_sc_hd__a2bb2o_1 A1_N A2_N B1 B2 VGND VNB VPB VPWR X
.ends

* Black-box entry subcircuit for sky130_fd_sc_hd__dlymetal6s2s_1 abstract view
.subckt sky130_fd_sc_hd__dlymetal6s2s_1 A VGND VNB VPB VPWR X
.ends

* Black-box entry subcircuit for sky130_fd_sc_hd__buf_8 abstract view
.subckt sky130_fd_sc_hd__buf_8 A VGND VNB VPB VPWR X
.ends

* Black-box entry subcircuit for sky130_fd_sc_hd__dfxtp_1 abstract view
.subckt sky130_fd_sc_hd__dfxtp_1 CLK D VGND VNB VPB VPWR Q
.ends

* Black-box entry subcircuit for sky130_fd_sc_hd__o31a_2 abstract view
.subckt sky130_fd_sc_hd__o31a_2 A1 A2 A3 B1 VGND VNB VPB VPWR X
.ends

* Black-box entry subcircuit for sky130_fd_sc_hd__a2111o_1 abstract view
.subckt sky130_fd_sc_hd__a2111o_1 A1 A2 B1 C1 D1 VGND VNB VPB VPWR X
.ends

* Black-box entry subcircuit for sky130_fd_sc_hd__or3b_2 abstract view
.subckt sky130_fd_sc_hd__or3b_2 A B C_N VGND VNB VPB VPWR X
.ends

* Black-box entry subcircuit for sky130_fd_sc_hd__nor3b_1 abstract view
.subckt sky130_fd_sc_hd__nor3b_1 A B C_N VGND VNB VPB VPWR Y
.ends

* Black-box entry subcircuit for sky130_fd_sc_hd__and3b_1 abstract view
.subckt sky130_fd_sc_hd__and3b_1 A_N B C VGND VNB VPB VPWR X
.ends

* Black-box entry subcircuit for sky130_fd_sc_hd__o22ai_2 abstract view
.subckt sky130_fd_sc_hd__o22ai_2 A1 A2 B1 B2 VGND VNB VPB VPWR Y
.ends

* Black-box entry subcircuit for sky130_fd_sc_hd__nor2_2 abstract view
.subckt sky130_fd_sc_hd__nor2_2 A B VGND VNB VPB VPWR Y
.ends

* Black-box entry subcircuit for sky130_fd_sc_hd__a221oi_2 abstract view
.subckt sky130_fd_sc_hd__a221oi_2 A1 A2 B1 B2 C1 VGND VNB VPB VPWR Y
.ends

* Black-box entry subcircuit for sky130_fd_sc_hd__o2bb2a_1 abstract view
.subckt sky130_fd_sc_hd__o2bb2a_1 A1_N A2_N B1 B2 VGND VNB VPB VPWR X
.ends

* Black-box entry subcircuit for sky130_fd_sc_hd__or4_1 abstract view
.subckt sky130_fd_sc_hd__or4_1 A B C D VGND VNB VPB VPWR X
.ends

* Black-box entry subcircuit for sky130_fd_sc_hd__a21bo_4 abstract view
.subckt sky130_fd_sc_hd__a21bo_4 A1 A2 B1_N VGND VNB VPB VPWR X
.ends

* Black-box entry subcircuit for sky130_fd_sc_hd__o32a_2 abstract view
.subckt sky130_fd_sc_hd__o32a_2 A1 A2 A3 B1 B2 VGND VNB VPB VPWR X
.ends

* Black-box entry subcircuit for sky130_fd_sc_hd__o21a_1 abstract view
.subckt sky130_fd_sc_hd__o21a_1 A1 A2 B1 VGND VNB VPB VPWR X
.ends

* Black-box entry subcircuit for sky130_fd_sc_hd__nand2_2 abstract view
.subckt sky130_fd_sc_hd__nand2_2 A B VGND VNB VPB VPWR Y
.ends

* Black-box entry subcircuit for sky130_fd_sc_hd__and4_1 abstract view
.subckt sky130_fd_sc_hd__and4_1 A B C D VGND VNB VPB VPWR X
.ends

* Black-box entry subcircuit for sky130_fd_sc_hd__a31o_4 abstract view
.subckt sky130_fd_sc_hd__a31o_4 A1 A2 A3 B1 VGND VNB VPB VPWR X
.ends

* Black-box entry subcircuit for sky130_fd_sc_hd__and3b_2 abstract view
.subckt sky130_fd_sc_hd__and3b_2 A_N B C VGND VNB VPB VPWR X
.ends

* Black-box entry subcircuit for sky130_fd_sc_hd__nand3b_1 abstract view
.subckt sky130_fd_sc_hd__nand3b_1 A_N B C VGND VNB VPB VPWR Y
.ends

* Black-box entry subcircuit for sky130_fd_sc_hd__a211o_1 abstract view
.subckt sky130_fd_sc_hd__a211o_1 A1 A2 B1 C1 VGND VNB VPB VPWR X
.ends

* Black-box entry subcircuit for sky130_fd_sc_hd__or4b_1 abstract view
.subckt sky130_fd_sc_hd__or4b_1 A B C D_N VGND VNB VPB VPWR X
.ends

* Black-box entry subcircuit for sky130_fd_sc_hd__o41a_1 abstract view
.subckt sky130_fd_sc_hd__o41a_1 A1 A2 A3 A4 B1 VGND VNB VPB VPWR X
.ends

* Black-box entry subcircuit for sky130_fd_sc_hd__a41o_1 abstract view
.subckt sky130_fd_sc_hd__a41o_1 A1 A2 A3 A4 B1 VGND VNB VPB VPWR X
.ends

* Black-box entry subcircuit for sky130_fd_sc_hd__buf_6 abstract view
.subckt sky130_fd_sc_hd__buf_6 A VGND VNB VPB VPWR X
.ends

* Black-box entry subcircuit for sky130_fd_sc_hd__mux2_4 abstract view
.subckt sky130_fd_sc_hd__mux2_4 A0 A1 S VGND VNB VPB VPWR X
.ends

* Black-box entry subcircuit for sky130_fd_sc_hd__or2_2 abstract view
.subckt sky130_fd_sc_hd__or2_2 A B VGND VNB VPB VPWR X
.ends

* Black-box entry subcircuit for sky130_fd_sc_hd__o41ai_1 abstract view
.subckt sky130_fd_sc_hd__o41ai_1 A1 A2 A3 A4 B1 VGND VNB VPB VPWR Y
.ends

* Black-box entry subcircuit for sky130_fd_sc_hd__dlygate4sd1_1 abstract view
.subckt sky130_fd_sc_hd__dlygate4sd1_1 A VGND VNB VPB VPWR X
.ends

.subckt Modulator CLK_EXT CLK_PLL CLK_SR Data_SR NMOS1_PS1 NMOS1_PS2 NMOS2_PS1 NMOS2_PS2
+ NMOS_PS3 PMOS1_PS1 PMOS1_PS2 PMOS2_PS1 PMOS2_PS2 PMOS_PS3 RST SIGNAL_OUTPUT VGND
+ VPWR d1[0] d1[1] d1[2] d1[3] d1[4] d1[5] d2[0] d2[1] d2[2] d2[3] d2[4] d2[5]
XFILLER_0_27_60 VGND VPWR VPWR VGND sky130_ef_sc_hd__decap_12
XFILLER_0_43_70 VGND VGND VPWR VPWR sky130_fd_sc_hd__decap_4
XFILLER_0_7_81 VGND VGND VPWR VPWR sky130_fd_sc_hd__decap_8
XFILLER_0_4_193 VGND VGND VPWR VPWR sky130_fd_sc_hd__decap_3
X_1270_ _0629_ VGND VGND VPWR VPWR _0180_ sky130_fd_sc_hd__clkbuf_1
XTAP_TAPCELL_ROW_14_161 VGND VPWR sky130_fd_sc_hd__tapvpwrvgnd_1
XFILLER_0_13_73 VGND VGND VPWR VPWR sky130_fd_sc_hd__fill_2
X_0985_ _0443_ VGND VGND VPWR VPWR _0058_ sky130_fd_sc_hd__inv_2
XTAP_TAPCELL_ROW_6_129 VGND VPWR sky130_fd_sc_hd__tapvpwrvgnd_1
XFILLER_0_18_29 VGND VPWR VPWR VGND sky130_ef_sc_hd__decap_12
X_0770_ Signal_Generator_1_180phase_inst.count\[3\] Signal_Generator_1_180phase_inst.count\[2\]
+ _0284_ VGND VGND VPWR VPWR _0285_ sky130_fd_sc_hd__and3_1
X_1253_ _0454_ _0455_ Dead_Time_Generator_inst_4.count_dt\[0\] VGND VGND VPWR VPWR
+ _0617_ sky130_fd_sc_hd__a21oi_1
X_1322_ clknet_3_2__leaf_Dead_Time_Generator_inst_1.clk _0019_ _0105_ VGND VGND VPWR
+ VPWR Signal_Generator_1_270phase_inst.count\[5\] sky130_fd_sc_hd__dfstp_1
X_1184_ _0563_ _0564_ VGND VGND VPWR VPWR _0565_ sky130_fd_sc_hd__nand2_1
XFILLER_0_46_169 VGND VGND VPWR VPWR sky130_fd_sc_hd__decap_8
XFILLER_0_46_125 VGND VPWR VPWR VGND sky130_ef_sc_hd__decap_12
XFILLER_0_6_277 VGND VGND VPWR VPWR sky130_fd_sc_hd__fill_1
X_0968_ Shift_Register_Inst.data_out\[9\] Shift_Register_Inst.data_out\[10\] VGND
+ VGND VPWR VPWR _0430_ sky130_fd_sc_hd__nor2_1
XFILLER_0_40_82 VGND VGND VPWR VPWR sky130_fd_sc_hd__fill_2
X_0899_ _0367_ _0378_ _0381_ Signal_Generator_2_180phase_inst.direction VGND VGND
+ VPWR VPWR _0038_ sky130_fd_sc_hd__a22o_1
XFILLER_0_10_250 VGND VGND VPWR VPWR sky130_fd_sc_hd__fill_2
XTAP_TAPCELL_ROW_2_110 VGND VPWR sky130_fd_sc_hd__tapvpwrvgnd_1
XFILLER_0_37_125 VGND VGND VPWR VPWR sky130_fd_sc_hd__decap_8
XTAP_TAPCELL_ROW_25_212 VGND VPWR sky130_fd_sc_hd__tapvpwrvgnd_1
XFILLER_0_45_49 VGND VGND VPWR VPWR sky130_fd_sc_hd__decap_4
XFILLER_0_45_27 VGND VGND VPWR VPWR sky130_fd_sc_hd__decap_3
XFILLER_0_0_18 VGND VGND VPWR VPWR sky130_fd_sc_hd__decap_8
XFILLER_0_0_29 VGND VPWR VPWR VGND sky130_ef_sc_hd__decap_12
XFILLER_0_43_128 VGND VGND VPWR VPWR sky130_fd_sc_hd__fill_1
X_0822_ Signal_Generator_2_0phase_inst.count\[0\] Signal_Generator_2_0phase_inst.count\[1\]
+ Signal_Generator_2_0phase_inst.count\[3\] Signal_Generator_2_0phase_inst.count\[2\]
+ VGND VGND VPWR VPWR _0323_ sky130_fd_sc_hd__or4_2
XFILLER_0_28_158 VGND VGND VPWR VPWR sky130_fd_sc_hd__decap_3
X_0753_ _0262_ _0269_ _0271_ Signal_Generator_1_90phase_inst.direction VGND VGND VPWR
+ VPWR _0023_ sky130_fd_sc_hd__a22o_1
XFILLER_0_36_191 VGND VGND VPWR VPWR sky130_fd_sc_hd__decap_4
XFILLER_0_3_225 VGND VPWR VPWR VGND sky130_ef_sc_hd__decap_12
XFILLER_0_10_85 VGND VPWR VPWR VGND sky130_ef_sc_hd__decap_12
X_0684_ _0221_ VGND VGND VPWR VPWR _0143_ sky130_fd_sc_hd__clkbuf_1
X_1305_ clknet_3_6__leaf_Dead_Time_Generator_inst_1.clk net49 _0088_ VGND VGND VPWR
+ VPWR Signal_Generator_1_90phase_inst.count\[2\] sky130_fd_sc_hd__dfstp_2
XFILLER_0_36_6 VGND VGND VPWR VPWR sky130_fd_sc_hd__decap_8
X_1236_ _0603_ _0604_ VGND VGND VPWR VPWR _0606_ sky130_fd_sc_hd__and2_1
XFILLER_0_19_72 VGND VGND VPWR VPWR sky130_fd_sc_hd__decap_8
X_1098_ _0499_ VGND VGND VPWR VPWR _0114_ sky130_fd_sc_hd__inv_2
X_1167_ _0548_ VGND VGND VPWR VPWR _0549_ sky130_fd_sc_hd__buf_2
XFILLER_0_40_109 VGND VPWR VPWR VGND sky130_ef_sc_hd__decap_12
X_1021_ Shift_Register_Inst.data_out\[8\] Shift_Register_Inst.data_out\[7\] VGND VGND
+ VPWR VPWR _0460_ sky130_fd_sc_hd__and2b_1
XFILLER_0_16_128 VGND VGND VPWR VPWR sky130_fd_sc_hd__decap_3
XFILLER_0_21_84 VGND VGND VPWR VPWR sky130_fd_sc_hd__fill_1
X_0805_ _0304_ _0309_ _0310_ Signal_Generator_1_270phase_inst.direction VGND VGND
+ VPWR VPWR _0015_ sky130_fd_sc_hd__a22o_1
X_0736_ Signal_Generator_1_0phase_inst.count\[4\] Signal_Generator_1_0phase_inst.direction
+ _0239_ Signal_Generator_1_0phase_inst.count\[5\] VGND VGND VPWR VPWR _0259_ sky130_fd_sc_hd__o31a_1
XFILLER_0_24_194 VGND VGND VPWR VPWR sky130_fd_sc_hd__fill_2
X_0667_ Shift_Register_Inst.shift_state\[1\] _0190_ _0196_ VGND VGND VPWR VPWR _0209_
+ sky130_fd_sc_hd__or3b_1
XFILLER_0_46_81 VGND VGND VPWR VPWR sky130_fd_sc_hd__decap_3
XFILLER_0_34_3 VGND VGND VPWR VPWR sky130_fd_sc_hd__decap_8
X_1219_ Dead_Time_Generator_inst_2.count_dt\[3\] _0585_ Dead_Time_Generator_inst_2.count_dt\[4\]
+ VGND VGND VPWR VPWR _0591_ sky130_fd_sc_hd__a21o_1
XFILLER_0_15_161 VGND VGND VPWR VPWR sky130_fd_sc_hd__decap_6
Xhold52 Signal_Generator_2_90phase_inst.direction VGND VGND VPWR VPWR net77 sky130_fd_sc_hd__dlygate4sd3_1
Xhold41 Signal_Generator_2_180phase_inst.direction VGND VGND VPWR VPWR net66 sky130_fd_sc_hd__dlygate4sd3_1
Xhold30 Dead_Time_Generator_inst_1.count_dt\[4\] VGND VGND VPWR VPWR net55 sky130_fd_sc_hd__dlygate4sd3_1
XFILLER_0_26_29 VGND VPWR VPWR VGND sky130_ef_sc_hd__decap_12
XFILLER_0_30_197 VGND VGND VPWR VPWR sky130_fd_sc_hd__fill_2
XFILLER_0_38_253 VGND VPWR VPWR VGND sky130_ef_sc_hd__decap_12
XFILLER_0_6_39 VGND VGND VPWR VPWR sky130_fd_sc_hd__decap_6
XFILLER_0_21_142 VGND VPWR VPWR VGND sky130_ef_sc_hd__decap_12
X_1004_ _0441_ VGND VGND VPWR VPWR _0445_ sky130_fd_sc_hd__buf_4
XFILLER_0_32_83 VGND VGND VPWR VPWR sky130_fd_sc_hd__fill_1
XFILLER_0_8_114 VGND VGND VPWR VPWR sky130_fd_sc_hd__decap_3
XFILLER_0_44_245 VGND VGND VPWR VPWR sky130_fd_sc_hd__decap_6
X_0719_ _0245_ _0242_ VGND VGND VPWR VPWR _0246_ sky130_fd_sc_hd__or2_1
XFILLER_0_35_223 VGND VGND VPWR VPWR sky130_fd_sc_hd__fill_1
Xoutput20 net20 VGND VGND VPWR VPWR PMOS1_PS1 sky130_fd_sc_hd__clkbuf_4
XFILLER_0_41_237 VGND VPWR VPWR VGND sky130_ef_sc_hd__decap_12
XFILLER_0_5_139 VGND VGND VPWR VPWR sky130_fd_sc_hd__fill_1
XFILLER_0_27_72 VGND VGND VPWR VPWR sky130_fd_sc_hd__decap_6
XFILLER_0_17_201 VGND VGND VPWR VPWR sky130_fd_sc_hd__decap_6
XFILLER_0_17_212 VGND VGND VPWR VPWR sky130_fd_sc_hd__decap_3
XFILLER_0_23_215 VGND VGND VPWR VPWR sky130_fd_sc_hd__decap_3
XTAP_TAPCELL_ROW_14_162 VGND VPWR sky130_fd_sc_hd__tapvpwrvgnd_1
XFILLER_0_13_85 VGND VGND VPWR VPWR sky130_fd_sc_hd__decap_4
X_0984_ _0443_ VGND VGND VPWR VPWR _0057_ sky130_fd_sc_hd__inv_2
XFILLER_0_1_120 VGND VGND VPWR VPWR sky130_fd_sc_hd__fill_1
XFILLER_0_1_142 VGND VGND VPWR VPWR sky130_fd_sc_hd__decap_4
XFILLER_0_38_93 VGND VGND VPWR VPWR sky130_fd_sc_hd__fill_1
XTAP_TAPCELL_ROW_37_265 VGND VPWR sky130_fd_sc_hd__tapvpwrvgnd_1
X_1321_ clknet_3_2__leaf_Dead_Time_Generator_inst_1.clk _0018_ _0104_ VGND VGND VPWR
+ VPWR Signal_Generator_1_270phase_inst.count\[4\] sky130_fd_sc_hd__dfrtp_4
X_1252_ Dead_Time_Generator_inst_4.count_dt\[0\] _0454_ _0455_ VGND VGND VPWR VPWR
+ _0616_ sky130_fd_sc_hd__and3_1
XFILLER_0_24_73 VGND VGND VPWR VPWR sky130_fd_sc_hd__decap_6
X_1183_ Dead_Time_Generator_inst_1.count_dt\[1\] net32 VGND VGND VPWR VPWR _0564_
+ sky130_fd_sc_hd__or2_1
XFILLER_0_46_137 VGND VGND VPWR VPWR sky130_fd_sc_hd__decap_3
XTAP_TAPCELL_ROW_42_290 VGND VPWR sky130_fd_sc_hd__tapvpwrvgnd_1
XFILLER_0_40_50 VGND VPWR VPWR VGND sky130_ef_sc_hd__decap_12
X_0967_ net22 net20 net15 net17 _0428_ Shift_Register_Inst.data_out\[9\] VGND VGND
+ VPWR VPWR _0429_ sky130_fd_sc_hd__mux4_1
X_0898_ _0379_ _0380_ _0370_ VGND VGND VPWR VPWR _0381_ sky130_fd_sc_hd__a21o_1
XPHY_EDGE_ROW_12_Right_12 VGND VGND VPWR VPWR sky130_fd_sc_hd__decap_3
XTAP_TAPCELL_ROW_2_111 VGND VPWR sky130_fd_sc_hd__tapvpwrvgnd_1
XPHY_EDGE_ROW_21_Right_21 VGND VGND VPWR VPWR sky130_fd_sc_hd__decap_3
XFILLER_0_37_137 VGND VPWR VPWR VGND sky130_ef_sc_hd__decap_12
XTAP_TAPCELL_ROW_25_213 VGND VPWR sky130_fd_sc_hd__tapvpwrvgnd_1
XPHY_EDGE_ROW_30_Right_30 VGND VGND VPWR VPWR sky130_fd_sc_hd__decap_3
X_0752_ net35 _0270_ VGND VGND VPWR VPWR _0271_ sky130_fd_sc_hd__or2_1
XFILLER_0_36_170 VGND VGND VPWR VPWR sky130_fd_sc_hd__fill_1
X_0821_ Signal_Generator_1_270phase_inst.count\[4\] Signal_Generator_1_270phase_inst.direction
+ _0306_ _0322_ VGND VGND VPWR VPWR _0019_ sky130_fd_sc_hd__a31o_1
XFILLER_0_9_39 VGND VGND VPWR VPWR sky130_fd_sc_hd__fill_1
XTAP_TAPCELL_ROW_31_238 VGND VPWR sky130_fd_sc_hd__tapvpwrvgnd_1
XFILLER_0_3_237 VGND VPWR VPWR VGND sky130_ef_sc_hd__decap_12
XFILLER_0_10_97 VGND VGND VPWR VPWR sky130_fd_sc_hd__fill_2
X_0683_ _0182_ Shift_Register_Inst.data_out\[9\] _0220_ VGND VGND VPWR VPWR _0221_
+ sky130_fd_sc_hd__mux2_1
X_1304_ clknet_3_3__leaf_Dead_Time_Generator_inst_1.clk _0022_ _0087_ VGND VGND VPWR
+ VPWR Signal_Generator_1_90phase_inst.count\[1\] sky130_fd_sc_hd__dfstp_1
X_1235_ Dead_Time_Generator_inst_3.count_dt\[0\] _0603_ _0604_ VGND VGND VPWR VPWR
+ _0605_ sky130_fd_sc_hd__and3_1
X_1166_ _0514_ net45 _0542_ _0547_ VGND VGND VPWR VPWR _0548_ sky130_fd_sc_hd__or4b_2
X_1097_ _0499_ VGND VGND VPWR VPWR _0113_ sky130_fd_sc_hd__inv_2
X_1020_ Shift_Register_Inst.data_out\[7\] Shift_Register_Inst.data_out\[8\] VGND VGND
+ VPWR VPWR _0459_ sky130_fd_sc_hd__nor2b_2
XPHY_EDGE_ROW_28_Left_75 VGND VGND VPWR VPWR sky130_fd_sc_hd__decap_3
X_0735_ Signal_Generator_1_0phase_inst.direction _0256_ _0257_ _0241_ _0258_ VGND
+ VGND VPWR VPWR _0004_ sky130_fd_sc_hd__a32o_1
XPHY_EDGE_ROW_12_Left_59 VGND VGND VPWR VPWR sky130_fd_sc_hd__decap_3
X_0804_ _0307_ _0309_ VGND VGND VPWR VPWR _0310_ sky130_fd_sc_hd__or2b_1
X_0666_ Shift_Register_Inst.data_out\[5\] VGND VGND VPWR VPWR _0208_ sky130_fd_sc_hd__clkbuf_2
X_1218_ _0590_ VGND VGND VPWR VPWR _0167_ sky130_fd_sc_hd__clkbuf_1
X_1149_ _0511_ _0512_ _0514_ _0530_ VGND VGND VPWR VPWR _0531_ sky130_fd_sc_hd__o22a_1
Xhold53 Signal_Generator_1_0phase_inst.direction VGND VGND VPWR VPWR net78 sky130_fd_sc_hd__dlygate4sd3_1
Xhold20 _0546_ VGND VGND VPWR VPWR net45 sky130_fd_sc_hd__dlygate4sd3_1
Xhold31 Signal_Generator_2_270phase_inst.count\[0\] VGND VGND VPWR VPWR net56 sky130_fd_sc_hd__dlygate4sd3_1
Xhold42 Dead_Time_Generator_inst_1.dt\[3\] VGND VGND VPWR VPWR net67 sky130_fd_sc_hd__dlygate4sd3_1
XFILLER_0_42_29 VGND VPWR VPWR VGND sky130_ef_sc_hd__decap_12
XFILLER_0_38_265 VGND VPWR VPWR VGND sky130_ef_sc_hd__decap_12
XFILLER_0_6_29 VGND VGND VPWR VPWR sky130_fd_sc_hd__fill_2
XFILLER_0_21_154 VGND VPWR VPWR VGND sky130_ef_sc_hd__decap_12
XFILLER_0_16_74 VGND VGND VPWR VPWR sky130_fd_sc_hd__fill_1
XFILLER_0_16_85 VGND VPWR VPWR VGND sky130_ef_sc_hd__decap_12
X_1003_ _0444_ VGND VGND VPWR VPWR _0075_ sky130_fd_sc_hd__inv_2
X_0718_ Signal_Generator_1_0phase_inst.count\[1\] Signal_Generator_1_0phase_inst.count\[0\]
+ VGND VGND VPWR VPWR _0245_ sky130_fd_sc_hd__nor2_1
XPHY_EDGE_ROW_6_Right_6 VGND VGND VPWR VPWR sky130_fd_sc_hd__decap_3
X_0649_ Shift_Register_Inst.shift_state\[0\] _0196_ VGND VGND VPWR VPWR _0197_ sky130_fd_sc_hd__and2_1
Xoutput21 net21 VGND VGND VPWR VPWR PMOS1_PS2 sky130_fd_sc_hd__clkbuf_4
XFILLER_0_41_249 VGND VPWR VPWR VGND sky130_ef_sc_hd__decap_12
XTAP_TAPCELL_ROW_9_139 VGND VPWR sky130_fd_sc_hd__tapvpwrvgnd_1
XPHY_EDGE_ROW_15_Left_62 VGND VGND VPWR VPWR sky130_fd_sc_hd__decap_3
XTAP_TAPCELL_ROW_14_163 VGND VPWR sky130_fd_sc_hd__tapvpwrvgnd_1
X_0983_ _0443_ VGND VGND VPWR VPWR _0056_ sky130_fd_sc_hd__inv_2
XFILLER_0_1_110 VGND VGND VPWR VPWR sky130_fd_sc_hd__fill_2
XFILLER_0_38_83 VGND VGND VPWR VPWR sky130_fd_sc_hd__fill_1
XTAP_TAPCELL_ROW_37_266 VGND VPWR sky130_fd_sc_hd__tapvpwrvgnd_1
XTAP_TAPCELL_ROW_20_188 VGND VPWR sky130_fd_sc_hd__tapvpwrvgnd_1
XFILLER_0_0_6 VGND VPWR VPWR VGND sky130_ef_sc_hd__decap_12
XPHY_EDGE_ROW_0_Left_47 VGND VGND VPWR VPWR sky130_fd_sc_hd__decap_3
X_1320_ clknet_3_3__leaf_Dead_Time_Generator_inst_1.clk _0017_ _0103_ VGND VGND VPWR
+ VPWR Signal_Generator_1_270phase_inst.count\[3\] sky130_fd_sc_hd__dfrtp_1
X_1182_ Dead_Time_Generator_inst_1.count_dt\[1\] net32 VGND VGND VPWR VPWR _0563_
+ sky130_fd_sc_hd__nand2_1
X_1251_ _0615_ VGND VGND VPWR VPWR _0175_ sky130_fd_sc_hd__clkbuf_1
XFILLER_0_24_85 VGND VGND VPWR VPWR sky130_fd_sc_hd__decap_3
XTAP_TAPCELL_ROW_42_291 VGND VPWR sky130_fd_sc_hd__tapvpwrvgnd_1
XPHY_EDGE_ROW_42_Left_89 VGND VGND VPWR VPWR sky130_fd_sc_hd__decap_3
XFILLER_0_40_62 VGND VPWR VPWR VGND sky130_ef_sc_hd__decap_12
X_0897_ net65 Signal_Generator_2_180phase_inst.count\[1\] Signal_Generator_2_180phase_inst.count\[2\]
+ Signal_Generator_2_180phase_inst.count\[3\] VGND VGND VPWR VPWR _0380_ sky130_fd_sc_hd__a31o_1
X_0966_ Shift_Register_Inst.data_out\[10\] VGND VGND VPWR VPWR _0428_ sky130_fd_sc_hd__inv_2
XFILLER_0_10_230 VGND VPWR VPWR VGND sky130_ef_sc_hd__decap_12
XFILLER_0_10_274 VGND VGND VPWR VPWR sky130_fd_sc_hd__fill_1
XTAP_TAPCELL_ROW_25_214 VGND VPWR sky130_fd_sc_hd__tapvpwrvgnd_1
XFILLER_0_37_149 VGND VGND VPWR VPWR sky130_fd_sc_hd__decap_8
X_0751_ Signal_Generator_1_90phase_inst.count\[2\] _0263_ VGND VGND VPWR VPWR _0270_
+ sky130_fd_sc_hd__xor2_1
X_0820_ Signal_Generator_1_270phase_inst.count\[4\] Signal_Generator_1_270phase_inst.direction
+ _0302_ Signal_Generator_1_270phase_inst.count\[5\] VGND VGND VPWR VPWR _0322_ sky130_fd_sc_hd__o31a_1
XFILLER_0_3_249 VGND VPWR VPWR VGND sky130_ef_sc_hd__decap_12
XTAP_TAPCELL_ROW_31_239 VGND VPWR sky130_fd_sc_hd__tapvpwrvgnd_1
X_1303_ clknet_3_3__leaf_Dead_Time_Generator_inst_1.clk _0021_ _0086_ VGND VGND VPWR
+ VPWR Signal_Generator_1_90phase_inst.count\[0\] sky130_fd_sc_hd__dfstp_1
X_0682_ _0188_ Shift_Register_Inst.shift_state\[2\] _0209_ VGND VGND VPWR VPWR _0220_
+ sky130_fd_sc_hd__or3_1
XFILLER_0_35_51 VGND VGND VPWR VPWR sky130_fd_sc_hd__fill_2
X_1096_ _0499_ VGND VGND VPWR VPWR _0112_ sky130_fd_sc_hd__inv_2
X_1234_ net30 Dead_Time_Generator_inst_3.count_dt\[4\] VGND VGND VPWR VPWR _0604_
+ sky130_fd_sc_hd__or2b_1
X_1165_ _0529_ _0521_ _0528_ VGND VGND VPWR VPWR _0547_ sky130_fd_sc_hd__and3_1
XFILLER_0_42_141 VGND VGND VPWR VPWR sky130_fd_sc_hd__fill_2
X_0949_ _0410_ _0416_ VGND VGND VPWR VPWR _0417_ sky130_fd_sc_hd__and2_1
XFILLER_0_33_152 VGND VPWR VPWR VGND sky130_ef_sc_hd__decap_12
XPHY_EDGE_ROW_3_Left_50 VGND VGND VPWR VPWR sky130_fd_sc_hd__decap_3
X_0734_ Signal_Generator_1_0phase_inst.count\[4\] _0239_ VGND VGND VPWR VPWR _0258_
+ sky130_fd_sc_hd__xnor2_1
X_0665_ _0207_ VGND VGND VPWR VPWR _0148_ sky130_fd_sc_hd__clkbuf_1
XFILLER_0_24_174 VGND VGND VPWR VPWR sky130_fd_sc_hd__fill_1
X_0803_ _0308_ _0305_ VGND VGND VPWR VPWR _0309_ sky130_fd_sc_hd__or2_1
X_1079_ _0498_ VGND VGND VPWR VPWR _0096_ sky130_fd_sc_hd__inv_2
XFILLER_0_1_74 VGND VGND VPWR VPWR sky130_fd_sc_hd__decap_4
X_1148_ _0521_ _0528_ _0529_ VGND VGND VPWR VPWR _0530_ sky130_fd_sc_hd__a21boi_1
X_1217_ _0545_ _0549_ _0589_ VGND VGND VPWR VPWR _0590_ sky130_fd_sc_hd__and3_1
XPHY_EDGE_ROW_45_Left_92 VGND VGND VPWR VPWR sky130_fd_sc_hd__decap_3
XFILLER_0_15_174 VGND VGND VPWR VPWR sky130_fd_sc_hd__fill_2
XFILLER_0_30_122 VGND VGND VPWR VPWR sky130_fd_sc_hd__fill_1
XFILLER_0_30_177 VGND VGND VPWR VPWR sky130_fd_sc_hd__fill_2
Xhold10 _0265_ VGND VGND VPWR VPWR net35 sky130_fd_sc_hd__dlygate4sd3_1
Xhold32 Signal_Generator_1_180phase_inst.count\[0\] VGND VGND VPWR VPWR net57 sky130_fd_sc_hd__dlygate4sd3_1
Xhold21 _0548_ VGND VGND VPWR VPWR net46 sky130_fd_sc_hd__dlygate4sd3_1
Xhold43 Dead_Time_Generator_inst_3.count_dt\[3\] VGND VGND VPWR VPWR net68 sky130_fd_sc_hd__dlygate4sd3_1
Xhold54 Shift_Register_Inst.shift_state\[1\] VGND VGND VPWR VPWR net79 sky130_fd_sc_hd__dlygate4sd3_1
XFILLER_0_38_277 VGND VGND VPWR VPWR sky130_fd_sc_hd__fill_1
XFILLER_0_21_166 VGND VGND VPWR VPWR sky130_fd_sc_hd__fill_2
XFILLER_0_21_177 VGND VGND VPWR VPWR sky130_fd_sc_hd__fill_2
XFILLER_0_21_199 VGND VGND VPWR VPWR sky130_fd_sc_hd__decap_3
X_1002_ _0444_ VGND VGND VPWR VPWR _0074_ sky130_fd_sc_hd__inv_2
XFILLER_0_8_138 VGND VGND VPWR VPWR sky130_fd_sc_hd__fill_2
X_0717_ net60 VGND VGND VPWR VPWR _0000_ sky130_fd_sc_hd__inv_2
X_0648_ Shift_Register_Inst.shift_state\[1\] _0185_ net72 VGND VGND VPWR VPWR _0196_
+ sky130_fd_sc_hd__o21ai_1
XFILLER_0_35_225 VGND VPWR VPWR VGND sky130_ef_sc_hd__decap_12
Xoutput22 net22 VGND VGND VPWR VPWR PMOS2_PS1 sky130_fd_sc_hd__clkbuf_4
XFILLER_0_9_3 VGND VPWR VPWR VGND sky130_ef_sc_hd__decap_12
XFILLER_0_5_119 VGND VPWR VPWR VGND sky130_ef_sc_hd__decap_12
XFILLER_0_27_52 VGND VGND VPWR VPWR sky130_fd_sc_hd__decap_4
XFILLER_0_27_85 VGND VGND VPWR VPWR sky130_fd_sc_hd__decap_6
XFILLER_0_32_206 VGND VGND VPWR VPWR sky130_fd_sc_hd__fill_1
XFILLER_0_4_185 VGND VGND VPWR VPWR sky130_fd_sc_hd__decap_8
XFILLER_0_4_141 VGND VPWR VPWR VGND sky130_ef_sc_hd__decap_12
XFILLER_0_17_225 VGND VGND VPWR VPWR sky130_fd_sc_hd__fill_2
XFILLER_0_17_269 VGND VGND VPWR VPWR sky130_fd_sc_hd__decap_6
XFILLER_0_13_65 VGND VGND VPWR VPWR sky130_fd_sc_hd__decap_8
XTAP_TAPCELL_ROW_14_164 VGND VPWR sky130_fd_sc_hd__tapvpwrvgnd_1
X_0982_ _0442_ VGND VGND VPWR VPWR _0443_ sky130_fd_sc_hd__buf_4
XFILLER_0_22_250 VGND VGND VPWR VPWR sky130_fd_sc_hd__fill_2
XFILLER_0_22_261 VGND VGND VPWR VPWR sky130_fd_sc_hd__decap_8
XTAP_TAPCELL_ROW_37_267 VGND VPWR sky130_fd_sc_hd__tapvpwrvgnd_1
XFILLER_0_9_222 VGND VGND VPWR VPWR sky130_fd_sc_hd__fill_2
XFILLER_0_9_277 VGND VGND VPWR VPWR sky130_fd_sc_hd__fill_1
XTAP_TAPCELL_ROW_20_189 VGND VPWR sky130_fd_sc_hd__tapvpwrvgnd_1
XTAP_TAPCELL_ROW_5_121 VGND VPWR sky130_fd_sc_hd__tapvpwrvgnd_1
X_1181_ _0545_ _0549_ net32 _0562_ VGND VGND VPWR VPWR _0158_ sky130_fd_sc_hd__a211oi_1
X_1250_ _0544_ _0548_ _0614_ VGND VGND VPWR VPWR _0615_ sky130_fd_sc_hd__and3_1
XFILLER_0_24_20 VGND VGND VPWR VPWR sky130_fd_sc_hd__decap_8
XFILLER_0_40_85 VGND VPWR VPWR VGND sky130_ef_sc_hd__decap_12
XFILLER_0_40_74 VGND VGND VPWR VPWR sky130_fd_sc_hd__decap_8
X_0896_ _0369_ VGND VGND VPWR VPWR _0379_ sky130_fd_sc_hd__inv_2
X_0965_ Shift_Register_Inst.data_out\[12\] VGND VGND VPWR VPWR _0427_ sky130_fd_sc_hd__inv_2
XFILLER_0_10_242 VGND VGND VPWR VPWR sky130_fd_sc_hd__decap_8
XFILLER_0_28_139 VGND VGND VPWR VPWR sky130_fd_sc_hd__fill_1
X_0750_ Signal_Generator_1_90phase_inst.count\[2\] net48 VGND VGND VPWR VPWR _0269_
+ sky130_fd_sc_hd__xor2_1
XFILLER_0_10_11 VGND VGND VPWR VPWR sky130_fd_sc_hd__fill_2
XFILLER_0_10_66 VGND VPWR VPWR VGND sky130_ef_sc_hd__decap_12
X_0681_ _0219_ VGND VGND VPWR VPWR _0144_ sky130_fd_sc_hd__clkbuf_1
X_1302_ clknet_3_6__leaf_Dead_Time_Generator_inst_1.clk net36 _0085_ VGND VGND VPWR
+ VPWR Signal_Generator_1_90phase_inst.direction sky130_fd_sc_hd__dfstp_2
X_1233_ _0595_ net38 _0600_ _0601_ _0602_ VGND VGND VPWR VPWR _0603_ sky130_fd_sc_hd__a221o_1
X_1095_ _0499_ VGND VGND VPWR VPWR _0111_ sky130_fd_sc_hd__inv_2
X_1164_ _0522_ _0526_ _0527_ VGND VGND VPWR VPWR _0546_ sky130_fd_sc_hd__and3_1
XFILLER_0_34_109 VGND VPWR VPWR VGND sky130_ef_sc_hd__decap_12
X_0948_ Dead_Time_Generator_inst_2.go net3 Shift_Register_Inst.data_out\[13\] VGND