*SPICE netlist created from verilog structural netlist module Modulator by vlog2Spice (qflow)
*This file may contain array delimiters, not for use in simulation.

.include /foss/pdks/sky130A/libs.ref/sky130_fd_sc_hd/spice/sky130_fd_sc_hd.spice

.subckt Modulator VPWR VGND CLK_EXT CLK_PLL CLK_SR Data_SR NMOS1_PS1
+ NMOS1_PS2 NMOS2_PS1 NMOS2_PS2 NMOS_PS3 PMOS1_PS1 PMOS1_PS2 PMOS2_PS1 PMOS2_PS2
+ PMOS_PS3 RST SIGNAL_OUTPUT d1[0] d1[1] d1[2] d1[3] d1[4]
+ d1[5] d2[0] d2[1] d2[2] d2[3] d2[4] d2[5] 

X_0596_ \Shift_Register_Inst.internal_data[4]\[0] VGND VGND VPWR VPWR _0182_ sky130_fd_sc_hd__clkinv_1
X_0597_ \Shift_Register_Inst.internal_data[3]\[0] VGND VGND VPWR VPWR _0183_ sky130_fd_sc_hd__clkinv_1
X_0598_ \Shift_Register_Inst.internal_data[2]\[0] VGND VGND VPWR VPWR _0184_ sky130_fd_sc_hd__clkinv_1
X_0599_ \Dead_Time_Generator_inst_1.count_dt\[4] VGND VGND VPWR VPWR _0185_ sky130_fd_sc_hd__clkinv_1
X_0600_ \Dead_Time_Generator_inst_1.count_dt\[3] VGND VGND VPWR VPWR _0186_ sky130_fd_sc_hd__clkinv_1
X_0601_ \Dead_Time_Generator_inst_1.count_dt\[1] VGND VGND VPWR VPWR _0187_ sky130_fd_sc_hd__clkinv_1
X_0602_ \Dead_Time_Generator_inst_1.count_dt\[0] VGND VGND VPWR VPWR _0188_ sky130_fd_sc_hd__clkinv_1
X_0603_ \Dead_Time_Generator_inst_2.count_dt\[2] VGND VGND VPWR VPWR _0189_ sky130_fd_sc_hd__clkinv_1
X_0604_ \Dead_Time_Generator_inst_3.count_dt\[4] VGND VGND VPWR VPWR _0190_ sky130_fd_sc_hd__clkinv_1
X_0605_ \Dead_Time_Generator_inst_3.count_dt\[3] VGND VGND VPWR VPWR _0191_ sky130_fd_sc_hd__clkinv_1
X_0606_ \Dead_Time_Generator_inst_3.count_dt\[1] VGND VGND VPWR VPWR _0192_ sky130_fd_sc_hd__clkinv_1
X_0607_ \Dead_Time_Generator_inst_3.count_dt\[0] VGND VGND VPWR VPWR _0193_ sky130_fd_sc_hd__clkinv_1
X_0608_ \Dead_Time_Generator_inst_4.count_dt\[2] VGND VGND VPWR VPWR _0194_ sky130_fd_sc_hd__clkinv_1
X_0609_ RST VGND VGND VPWR VPWR _0000_ sky130_fd_sc_hd__clkinv_1
X_0610_ \Signal_Generator_2_90phase_inst.count\[0] VGND VGND VPWR VPWR _0175_ sky130_fd_sc_hd__clkinv_1
X_0611_ \Signal_Generator_2_90phase_inst.count\[4] VGND VGND VPWR VPWR _0195_ sky130_fd_sc_hd__clkinv_1
X_0612_ \Signal_Generator_2_90phase_inst.count\[3] VGND VGND VPWR VPWR _0196_ sky130_fd_sc_hd__clkinv_1
X_0613_ \Signal_Generator_2_180phase_inst.count\[3] VGND VGND VPWR VPWR _0197_ sky130_fd_sc_hd__clkinv_1
X_0614_ \Signal_Generator_2_180phase_inst.count\[0] VGND VGND VPWR VPWR _0161_ sky130_fd_sc_hd__clkinv_1
X_0615_ \Signal_Generator_2_270phase_inst.count\[0] VGND VGND VPWR VPWR _0168_ sky130_fd_sc_hd__clkinv_1
X_0616_ \Signal_Generator_2_270phase_inst.count\[3] VGND VGND VPWR VPWR _0198_ sky130_fd_sc_hd__clkinv_1
X_0617_ \Signal_Generator_2_0phase_inst.count\[0] VGND VGND VPWR VPWR _0154_ sky130_fd_sc_hd__clkinv_1
X_0618_ \Signal_Generator_2_0phase_inst.count\[3] VGND VGND VPWR VPWR _0199_ sky130_fd_sc_hd__clkinv_1
X_0619_ \Signal_Generator_1_270phase_inst.count\[0] VGND VGND VPWR VPWR _0140_ sky130_fd_sc_hd__clkinv_1
X_0620_ \Signal_Generator_1_180phase_inst.count\[0] VGND VGND VPWR VPWR _0133_ sky130_fd_sc_hd__clkinv_1
X_0621_ \Signal_Generator_1_90phase_inst.count\[0] VGND VGND VPWR VPWR _0147_ sky130_fd_sc_hd__clkinv_1
X_0622_ \Signal_Generator_1_0phase_inst.count\[0] VGND VGND VPWR VPWR _0126_ sky130_fd_sc_hd__clkinv_1
X_0623_ d1[0] VGND VGND VPWR VPWR _0200_ sky130_fd_sc_hd__clkinv_1
X_0624_ \Shift_Register_Inst.shift_state\[2] \Shift_Register_Inst.shift_state\[3] VGND VGND VPWR VPWR 
+ _0201_
+ sky130_fd_sc_hd__lpflow_isobufsrc_1
X_0625_ \Shift_Register_Inst.shift_state\[3] \Shift_Register_Inst.shift_state\[2] VGND VGND VPWR VPWR 
+ _0202_
+ sky130_fd_sc_hd__nor2_1
X_0626_ \Shift_Register_Inst.shift_state\[3] \Shift_Register_Inst.shift_state\[2] \Shift_Register_Inst.shift_state\[1] VGND VGND VPWR 
+ VPWR
+ _0203_ sky130_fd_sc_hd__nor3_1
X_0627_ \Shift_Register_Inst.shift_state\[4] _0203_ VGND VGND VPWR VPWR 
+ _0204_
+ sky130_fd_sc_hd__nand2_1
X_0628_ \Shift_Register_Inst.shift_state\[4] \Shift_Register_Inst.shift_state\[0] _0203_ VGND VGND VPWR 
+ VPWR
+ _0205_ sky130_fd_sc_hd__nand3_1
X_0629_ Data_SR \Shift_Register_Inst.internal_data[17]\[0] _0205_ VGND VGND VPWR 
+ VPWR
+ _0125_ sky130_fd_sc_hd__mux2_1
X_0630_ \Shift_Register_Inst.shift_state\[0] _0204_ VGND VGND VPWR VPWR 
+ _0206_
+ sky130_fd_sc_hd__nor2_1
X_0631_ \Shift_Register_Inst.internal_data[16]\[0] Data_SR _0206_ VGND VGND VPWR 
+ VPWR
+ _0124_ sky130_fd_sc_hd__mux2_1
X_0632_ \Shift_Register_Inst.shift_state\[1] \Shift_Register_Inst.shift_state\[0] VGND VGND VPWR VPWR 
+ _0207_
+ sky130_fd_sc_hd__nand2_1
X_0633_ \Shift_Register_Inst.shift_state\[4] _0207_ VGND VGND VPWR VPWR 
+ _0208_
+ sky130_fd_sc_hd__nor2_1
X_0634_ \Shift_Register_Inst.shift_state\[3] \Shift_Register_Inst.shift_state\[2] _0208_ VGND VGND VPWR 
+ VPWR
+ _0209_ sky130_fd_sc_hd__nand3_1
X_0635_ Data_SR \Shift_Register_Inst.internal_data[15]\[0] _0209_ VGND VGND VPWR 
+ VPWR
+ _0123_ sky130_fd_sc_hd__mux2_1
X_0636_ \Shift_Register_Inst.shift_state\[4] \Shift_Register_Inst.shift_state\[0] \Shift_Register_Inst.shift_state\[1] VGND VGND VPWR 
+ VPWR
+ _0210_ sky130_fd_sc_hd__nor3b_1
X_0637_ \Shift_Register_Inst.shift_state\[3] \Shift_Register_Inst.shift_state\[2] _0210_ VGND VGND VPWR 
+ VPWR
+ _0211_ sky130_fd_sc_hd__nand3_1
X_0638_ Data_SR \Shift_Register_Inst.internal_data[14]\[0] _0211_ VGND VGND VPWR 
+ VPWR
+ _0122_ sky130_fd_sc_hd__mux2_1
X_0639_ \Shift_Register_Inst.shift_state\[4] \Shift_Register_Inst.shift_state\[1] \Shift_Register_Inst.shift_state\[0] VGND VGND VPWR 
+ VPWR
+ _0212_ sky130_fd_sc_hd__nor3b_1
X_0640_ \Shift_Register_Inst.shift_state\[3] \Shift_Register_Inst.shift_state\[2] _0212_ VGND VGND VPWR 
+ VPWR
+ _0213_ sky130_fd_sc_hd__nand3_1
X_0641_ Data_SR \Shift_Register_Inst.internal_data[13]\[0] _0213_ VGND VGND VPWR 
+ VPWR
+ _0121_ sky130_fd_sc_hd__mux2_1
X_0642_ \Shift_Register_Inst.shift_state\[4] \Shift_Register_Inst.shift_state\[1] \Shift_Register_Inst.shift_state\[0] VGND VGND VPWR 
+ VPWR
+ _0214_ sky130_fd_sc_hd__nor3_1
X_0643_ \Shift_Register_Inst.shift_state\[3] \Shift_Register_Inst.shift_state\[2] _0214_ VGND VGND VPWR 
+ VPWR
+ _0215_ sky130_fd_sc_hd__nand3_1
X_0644_ Data_SR \Shift_Register_Inst.internal_data[12]\[0] _0215_ VGND VGND VPWR 
+ VPWR
+ _0120_ sky130_fd_sc_hd__mux2_1
X_0645_ \Shift_Register_Inst.shift_state\[3] \Shift_Register_Inst.shift_state\[2] VGND VGND VPWR VPWR 
+ _0216_
+ sky130_fd_sc_hd__lpflow_isobufsrc_1
X_0646_ _0208_ _0216_ VGND VGND VPWR VPWR 
+ _0217_
+ sky130_fd_sc_hd__nand2_1
X_0647_ Data_SR \Shift_Register_Inst.internal_data[11]\[0] _0217_ VGND VGND VPWR 
+ VPWR
+ _0119_ sky130_fd_sc_hd__mux2_1
X_0648_ _0210_ _0216_ VGND VGND VPWR VPWR 
+ _0218_
+ sky130_fd_sc_hd__nand2_1
X_0649_ Data_SR \Shift_Register_Inst.internal_data[10]\[0] _0218_ VGND VGND VPWR 
+ VPWR
+ _0118_ sky130_fd_sc_hd__mux2_1
X_0650_ _0212_ _0216_ VGND VGND VPWR VPWR 
+ _0219_
+ sky130_fd_sc_hd__nand2_1
X_0651_ Data_SR \Shift_Register_Inst.internal_data[9]\[0] _0219_ VGND VGND VPWR 
+ VPWR
+ _0117_ sky130_fd_sc_hd__mux2_1
X_0652_ _0214_ _0216_ VGND VGND VPWR VPWR 
+ _0220_
+ sky130_fd_sc_hd__nand2_1
X_0653_ Data_SR \Shift_Register_Inst.internal_data[8]\[0] _0220_ VGND VGND VPWR 
+ VPWR
+ _0116_ sky130_fd_sc_hd__mux2_1
X_0654_ \Shift_Register_Inst.shift_state\[2] _0208_ VGND VGND VPWR VPWR 
+ _0221_
+ sky130_fd_sc_hd__nand2_1
X_0655_ _0201_ _0208_ VGND VGND VPWR VPWR 
+ _0222_
+ sky130_fd_sc_hd__nand2_1
X_0656_ Data_SR \Shift_Register_Inst.internal_data[7]\[0] _0222_ VGND VGND VPWR 
+ VPWR
+ _0115_ sky130_fd_sc_hd__mux2_1
X_0657_ _0201_ _0210_ VGND VGND VPWR VPWR 
+ _0223_
+ sky130_fd_sc_hd__nand2_1
X_0658_ Data_SR \Shift_Register_Inst.internal_data[6]\[0] _0223_ VGND VGND VPWR 
+ VPWR
+ _0114_ sky130_fd_sc_hd__mux2_1
X_0659_ _0201_ _0212_ VGND VGND VPWR VPWR 
+ _0224_
+ sky130_fd_sc_hd__nand2_1
X_0660_ Data_SR \Shift_Register_Inst.internal_data[5]\[0] _0224_ VGND VGND VPWR 
+ VPWR
+ _0113_ sky130_fd_sc_hd__mux2_1
X_0661_ _0201_ _0214_ VGND VGND VPWR VPWR 
+ _0225_
+ sky130_fd_sc_hd__nand2_1
X_0662_ Data_SR _0225_ VGND VGND VPWR VPWR 
+ _0226_
+ sky130_fd_sc_hd__nor2_1
X_0663_ _0182_ _0225_ _0226_ VGND VGND VPWR 
+ VPWR
+ _0112_ sky130_fd_sc_hd__a21oi_1
X_0664_ _0202_ _0208_ VGND VGND VPWR VPWR 
+ _0227_
+ sky130_fd_sc_hd__nand2_1
X_0665_ Data_SR _0227_ VGND VGND VPWR VPWR 
+ _0228_
+ sky130_fd_sc_hd__nor2_1
X_0666_ _0183_ _0227_ _0228_ VGND VGND VPWR 
+ VPWR
+ _0111_ sky130_fd_sc_hd__a21oi_1
X_0667_ _0202_ _0210_ VGND VGND VPWR VPWR 
+ _0229_
+ sky130_fd_sc_hd__nand2_1
X_0668_ Data_SR _0229_ VGND VGND VPWR VPWR 
+ _0230_
+ sky130_fd_sc_hd__nor2_1
X_0669_ _0184_ _0229_ _0230_ VGND VGND VPWR 
+ VPWR
+ _0110_ sky130_fd_sc_hd__a21oi_1
X_0670_ _0202_ _0212_ VGND VGND VPWR VPWR 
+ _0231_
+ sky130_fd_sc_hd__nand2_1
X_0671_ Data_SR \Shift_Register_Inst.internal_data[1]\[0] _0231_ VGND VGND VPWR 
+ VPWR
+ _0109_ sky130_fd_sc_hd__mux2_1
X_0672_ \Shift_Register_Inst.shift_state\[3] \Shift_Register_Inst.shift_state\[2] \Shift_Register_Inst.shift_state\[1] \Shift_Register_Inst.shift_state\[0] \Shift_Register_Inst.shift_state\[4] VGND 
+ VGND
+ VPWR VPWR _0108_ sky130_fd_sc_hd__a41o_1
X_0673_ \Shift_Register_Inst.shift_state\[3] _0221_ VGND VGND VPWR VPWR 
+ _0232_
+ sky130_fd_sc_hd__nand2_1
X_0674_ _0222_ _0232_ VGND VGND VPWR VPWR 
+ _0107_
+ sky130_fd_sc_hd__nand2_1
X_0675_ \Shift_Register_Inst.shift_state\[2] _0208_ VGND VGND VPWR VPWR 
+ _0106_
+ sky130_fd_sc_hd__xor2_1
X_0676_ _0203_ \Shift_Register_Inst.shift_state\[4] VGND VGND VPWR VPWR 
+ _0233_
+ sky130_fd_sc_hd__nand2b_1
X_0677_ \Shift_Register_Inst.shift_state\[0] _0233_ \Shift_Register_Inst.shift_state\[1] VGND VGND VPWR 
+ VPWR
+ _0234_ sky130_fd_sc_hd__a21oi_1
X_0678_ _0208_ _0234_ VGND VGND VPWR VPWR 
+ _0105_
+ sky130_fd_sc_hd__nor2_1
X_0679_ \Shift_Register_Inst.shift_state\[0] _0233_ VGND VGND VPWR VPWR 
+ _0104_
+ sky130_fd_sc_hd__xor2_1
X_0680_ _0202_ _0214_ VGND VGND VPWR VPWR 
+ _0235_
+ sky130_fd_sc_hd__nand2_1
X_0681_ Data_SR \Shift_Register_Inst.internal_data[0]\[0] _0235_ VGND VGND VPWR 
+ VPWR
+ _0084_ sky130_fd_sc_hd__mux2_1
X_0682_ \Shift_Register_Inst.internal_data[7]\[0] \Signal_Generator_2_180phase_inst.count\[5] \Shift_Register_Inst.internal_data[8]\[0] VGND VGND VPWR 
+ VPWR
+ _0236_ sky130_fd_sc_hd__nand3b_1
X_0683_ \Shift_Register_Inst.internal_data[8]\[0] \Shift_Register_Inst.internal_data[7]\[0] VGND VGND VPWR VPWR 
+ _0237_
+ sky130_fd_sc_hd__nor2_1
X_0684_ \Shift_Register_Inst.internal_data[8]\[0] \Shift_Register_Inst.internal_data[7]\[0] \Signal_Generator_2_90phase_inst.count\[5] VGND VGND VPWR 
+ VPWR
+ _0238_ sky130_fd_sc_hd__nand3b_1
X_0685_ \Shift_Register_Inst.internal_data[8]\[0] \Shift_Register_Inst.internal_data[7]\[0] \Signal_Generator_2_270phase_inst.count\[5] VGND VGND VPWR 
+ VPWR
+ _0239_ sky130_fd_sc_hd__nand3_1
X_0686_ _0236_ _0238_ _0239_ VGND VGND VPWR 
+ VPWR
+ _0240_ sky130_fd_sc_hd__nand3_1
X_0687_ \Signal_Generator_2_0phase_inst.count\[5] _0237_ _0240_ VGND VGND VPWR 
+ VPWR
+ _0241_ sky130_fd_sc_hd__a21oi_1
X_0688_ d2[5] _0241_ VGND VGND VPWR VPWR 
+ _0242_
+ sky130_fd_sc_hd__nor2_1
X_0689_ d2[5] _0241_ VGND VGND VPWR VPWR 
+ _0243_
+ sky130_fd_sc_hd__lpflow_inputiso1p_1
X_0690_ \Shift_Register_Inst.internal_data[8]\[0] \Shift_Register_Inst.internal_data[7]\[0] \Signal_Generator_2_0phase_inst.count\[1] VGND VGND VPWR 
+ VPWR
+ _0244_ sky130_fd_sc_hd__or3b_1
X_0691_ \Shift_Register_Inst.internal_data[8]\[0] \Shift_Register_Inst.internal_data[7]\[0] \Signal_Generator_2_90phase_inst.count\[1] VGND VGND VPWR 
+ VPWR
+ _0245_ sky130_fd_sc_hd__nand3b_1
X_0692_ \Shift_Register_Inst.internal_data[8]\[0] \Shift_Register_Inst.internal_data[7]\[0] \Signal_Generator_2_270phase_inst.count\[1] VGND VGND VPWR 
+ VPWR
+ _0246_ sky130_fd_sc_hd__nand3_1
X_0693_ \Shift_Register_Inst.internal_data[7]\[0] \Signal_Generator_2_180phase_inst.count\[1] \Shift_Register_Inst.internal_data[8]\[0] VGND VGND VPWR 
+ VPWR
+ _0247_ sky130_fd_sc_hd__nand3b_1
X_0694_ _0244_ _0245_ _0246_ _0247_ VGND VGND 
+ VPWR
+ VPWR _0248_ sky130_fd_sc_hd__and4_1
X_0695_ \Signal_Generator_2_0phase_inst.count\[0] \Signal_Generator_2_180phase_inst.count\[0] \Signal_Generator_2_90phase_inst.count\[0] \Signal_Generator_2_270phase_inst.count\[0] \Shift_Register_Inst.internal_data[8]\[0] \Shift_Register_Inst.internal_data[7]\[0] 
+ VGND
+ VGND VPWR VPWR _0249_ sky130_fd_sc_hd__mux4_2
X_0696_ d2[0] _0249_ VGND VGND VPWR VPWR 
+ _0250_
+ sky130_fd_sc_hd__nand2b_1
X_0697_ d2[1] _0248_ _0250_ VGND VGND VPWR 
+ VPWR
+ _0251_ sky130_fd_sc_hd__a21oi_1
X_0698_ \Shift_Register_Inst.internal_data[8]\[0] \Shift_Register_Inst.internal_data[7]\[0] \Signal_Generator_2_0phase_inst.count\[2] VGND VGND VPWR 
+ VPWR
+ _0252_ sky130_fd_sc_hd__or3b_1
X_0699_ \Shift_Register_Inst.internal_data[7]\[0] \Signal_Generator_2_180phase_inst.count\[2] \Shift_Register_Inst.internal_data[8]\[0] VGND VGND VPWR 
+ VPWR
+ _0253_ sky130_fd_sc_hd__nand3b_1
X_0700_ \Shift_Register_Inst.internal_data[8]\[0] \Shift_Register_Inst.internal_data[7]\[0] \Signal_Generator_2_270phase_inst.count\[2] VGND VGND VPWR 
+ VPWR
+ _0254_ sky130_fd_sc_hd__nand3_1
X_0701_ \Shift_Register_Inst.internal_data[8]\[0] \Shift_Register_Inst.internal_data[7]\[0] \Signal_Generator_2_90phase_inst.count\[2] VGND VGND VPWR 
+ VPWR
+ _0255_ sky130_fd_sc_hd__nand3b_1
X_0702_ _0252_ _0253_ _0254_ _0255_ VGND VGND 
+ VPWR
+ VPWR _0256_ sky130_fd_sc_hd__and4_1
X_0703_ d2[1] _0248_ _0256_ d2[2] VGND VGND 
+ VPWR
+ VPWR _0257_ sky130_fd_sc_hd__o22ai_1
X_0704_ _0199_ _0197_ _0196_ _0198_ \Shift_Register_Inst.internal_data[8]\[0] \Shift_Register_Inst.internal_data[7]\[0] 
+ VGND
+ VGND VPWR VPWR _0258_ sky130_fd_sc_hd__mux4_2
X_0705_ d2[2] _0256_ _0258_ d2[3] VGND VGND 
+ VPWR
+ VPWR _0259_ sky130_fd_sc_hd__a22oi_1
X_0706_ _0251_ _0257_ _0259_ VGND VGND VPWR 
+ VPWR
+ _0260_ sky130_fd_sc_hd__o21a_1
X_0707_ \Shift_Register_Inst.internal_data[7]\[0] \Signal_Generator_2_180phase_inst.count\[4] \Shift_Register_Inst.internal_data[8]\[0] VGND VGND VPWR 
+ VPWR
+ _0261_ sky130_fd_sc_hd__nand3b_1
X_0708_ \Shift_Register_Inst.internal_data[8]\[0] \Shift_Register_Inst.internal_data[7]\[0] \Signal_Generator_2_90phase_inst.count\[4] VGND VGND VPWR 
+ VPWR
+ _0262_ sky130_fd_sc_hd__nand3b_1
X_0709_ \Shift_Register_Inst.internal_data[8]\[0] \Shift_Register_Inst.internal_data[7]\[0] \Signal_Generator_2_270phase_inst.count\[4] VGND VGND VPWR 
+ VPWR
+ _0263_ sky130_fd_sc_hd__nand3_1
X_0710_ _0261_ _0262_ _0263_ VGND VGND VPWR 
+ VPWR
+ _0264_ sky130_fd_sc_hd__nand3_1
X_0711_ \Signal_Generator_2_0phase_inst.count\[4] _0237_ _0264_ VGND VGND VPWR 
+ VPWR
+ _0265_ sky130_fd_sc_hd__a21oi_1
X_0712_ d2[3] _0258_ _0265_ d2[4] VGND VGND 
+ VPWR
+ VPWR _0266_ sky130_fd_sc_hd__o22ai_1
X_0713_ d2[5] _0241_ VGND VGND VPWR VPWR 
+ _0267_
+ sky130_fd_sc_hd__nand2_1
X_0714_ d2[4] _0265_ VGND VGND VPWR VPWR 
+ _0268_
+ sky130_fd_sc_hd__nand2_1
X_0715_ _0260_ _0266_ _0267_ _0268_ VGND VGND 
+ VPWR
+ VPWR _0269_ sky130_fd_sc_hd__o211a_1
X_0716_ _0260_ _0266_ _0267_ _0268_ VGND VGND 
+ VPWR
+ VPWR _0270_ sky130_fd_sc_hd__o211ai_1
X_0717_ _0182_ \Dead_Time_Generator_inst_4.count_dt\[4] VGND VGND VPWR VPWR 
+ _0271_
+ sky130_fd_sc_hd__nand2_1
X_0718_ \Shift_Register_Inst.internal_data[2]\[0] _0194_ VGND VGND VPWR VPWR 
+ _0272_
+ sky130_fd_sc_hd__nand2_1
X_0719_ \Shift_Register_Inst.internal_data[0]\[0] \Dead_Time_Generator_inst_4.count_dt\[0] VGND VGND VPWR VPWR 
+ _0273_
+ sky130_fd_sc_hd__lpflow_isobufsrc_1
X_0720_ \Shift_Register_Inst.internal_data[1]\[0] \Dead_Time_Generator_inst_4.count_dt\[1] VGND VGND VPWR VPWR 
+ _0274_
+ sky130_fd_sc_hd__lpflow_isobufsrc_1
X_0721_ \Shift_Register_Inst.internal_data[1]\[0] \Dead_Time_Generator_inst_4.count_dt\[1] VGND VGND VPWR VPWR 
+ _0275_
+ sky130_fd_sc_hd__nand2b_1
X_0722_ \Shift_Register_Inst.internal_data[2]\[0] _0194_ _0273_ _0274_ _0275_ VGND 
+ VGND
+ VPWR VPWR _0276_ sky130_fd_sc_hd__o221ai_1
X_0723_ _0183_ \Dead_Time_Generator_inst_4.count_dt\[3] _0272_ _0276_ VGND VGND 
+ VPWR
+ VPWR _0277_ sky130_fd_sc_hd__a22oi_1
X_0724_ _0182_ \Dead_Time_Generator_inst_4.count_dt\[4] \Dead_Time_Generator_inst_4.count_dt\[3] _0183_ VGND VGND 
+ VPWR
+ VPWR _0278_ sky130_fd_sc_hd__o22ai_1
X_0725_ _0277_ _0278_ _0271_ VGND VGND VPWR 
+ VPWR
+ _0279_ sky130_fd_sc_hd__o21ai_0
X_0726_ _0277_ _0278_ \Dead_Time_Generator_inst_4.count_dt\[0] _0271_ VGND VGND 
+ VPWR
+ VPWR _0280_ sky130_fd_sc_hd__o211ai_1
X_0727_ \Dead_Time_Generator_inst_4.count_dt\[0] _0279_ VGND VGND VPWR VPWR 
+ _0281_
+ sky130_fd_sc_hd__xor2_1
X_0728_ _0243_ _0270_ _0281_ VGND VGND VPWR 
+ VPWR
+ _0079_ sky130_fd_sc_hd__a21oi_1
X_0729_ _0277_ _0278_ \Dead_Time_Generator_inst_4.count_dt\[1] \Dead_Time_Generator_inst_4.count_dt\[0] _0271_ VGND 
+ VGND
+ VPWR VPWR _0282_ sky130_fd_sc_hd__o2111a_1
X_0730_ \Dead_Time_Generator_inst_4.count_dt\[1] _0280_ VGND VGND VPWR VPWR 
+ _0283_
+ sky130_fd_sc_hd__xor2_1
X_0731_ _0243_ _0270_ _0283_ VGND VGND VPWR 
+ VPWR
+ _0080_ sky130_fd_sc_hd__a21oi_1
X_0732_ \Dead_Time_Generator_inst_4.count_dt\[2] _0282_ VGND VGND VPWR VPWR 
+ _0284_
+ sky130_fd_sc_hd__xnor2_1
X_0733_ _0243_ _0270_ _0284_ VGND VGND VPWR 
+ VPWR
+ _0081_ sky130_fd_sc_hd__a21oi_1
X_0734_ \Dead_Time_Generator_inst_4.count_dt\[2] _0282_ \Dead_Time_Generator_inst_4.count_dt\[3] VGND VGND VPWR 
+ VPWR
+ _0285_ sky130_fd_sc_hd__a21oi_1
X_0735_ \Dead_Time_Generator_inst_4.count_dt\[3] \Dead_Time_Generator_inst_4.count_dt\[2] _0282_ VGND VGND VPWR 
+ VPWR
+ _0286_ sky130_fd_sc_hd__and3_1
X_0736_ _0243_ _0270_ _0285_ _0286_ VGND VGND 
+ VPWR
+ VPWR _0082_ sky130_fd_sc_hd__a211oi_1
X_0737_ _0242_ _0269_ _0286_ \Dead_Time_Generator_inst_4.count_dt\[4] VGND VGND 
+ VPWR
+ VPWR _0083_ sky130_fd_sc_hd__o22a_1
X_0738_ \Shift_Register_Inst.internal_data[4]\[0] _0190_ VGND VGND VPWR VPWR 
+ _0287_
+ sky130_fd_sc_hd__nor2_1
X_0739_ _0184_ \Dead_Time_Generator_inst_3.count_dt\[2] VGND VGND VPWR VPWR 
+ _0288_
+ sky130_fd_sc_hd__nor2_1
X_0740_ \Dead_Time_Generator_inst_3.count_dt\[0] \Shift_Register_Inst.internal_data[0]\[0] VGND VGND VPWR VPWR 
+ _0289_
+ sky130_fd_sc_hd__nand2b_1
X_0741_ \Dead_Time_Generator_inst_3.count_dt\[1] \Shift_Register_Inst.internal_data[1]\[0] VGND VGND VPWR VPWR 
+ _0290_
+ sky130_fd_sc_hd__nand2b_1
X_0742_ \Dead_Time_Generator_inst_3.count_dt\[1] \Shift_Register_Inst.internal_data[1]\[0] VGND VGND VPWR VPWR 
+ _0291_
+ sky130_fd_sc_hd__lpflow_isobufsrc_1
X_0743_ _0184_ \Dead_Time_Generator_inst_3.count_dt\[2] _0289_ _0290_ _0291_ VGND 
+ VGND
+ VPWR VPWR _0292_ sky130_fd_sc_hd__a221oi_1
X_0744_ \Shift_Register_Inst.internal_data[3]\[0] _0191_ _0288_ _0292_ VGND VGND 
+ VPWR
+ VPWR _0293_ sky130_fd_sc_hd__o22ai_1
X_0745_ \Shift_Register_Inst.internal_data[4]\[0] _0190_ _0191_ \Shift_Register_Inst.internal_data[3]\[0] VGND VGND 
+ VPWR
+ VPWR _0294_ sky130_fd_sc_hd__a22oi_1
X_0746_ _0293_ _0294_ _0287_ VGND VGND VPWR 
+ VPWR
+ _0295_ sky130_fd_sc_hd__a21oi_1
X_0747_ \Dead_Time_Generator_inst_3.count_dt\[0] _0295_ VGND VGND VPWR VPWR 
+ _0296_
+ sky130_fd_sc_hd__xnor2_1
X_0748_ _0242_ _0269_ _0296_ VGND VGND VPWR 
+ VPWR
+ _0085_ sky130_fd_sc_hd__nor3_1
X_0749_ \Dead_Time_Generator_inst_3.count_dt\[0] _0295_ \Dead_Time_Generator_inst_3.count_dt\[1] VGND VGND VPWR 
+ VPWR
+ _0297_ sky130_fd_sc_hd__a21oi_1
X_0750_ _0293_ _0294_ _0192_ _0193_ _0287_ VGND 
+ VGND
+ VPWR VPWR _0298_ sky130_fd_sc_hd__a2111oi_0
X_0751_ _0242_ _0269_ _0297_ _0298_ VGND VGND 
+ VPWR
+ VPWR _0086_ sky130_fd_sc_hd__nor4_1
X_0752_ \Dead_Time_Generator_inst_3.count_dt\[2] _0298_ VGND VGND VPWR VPWR 
+ _0299_
+ sky130_fd_sc_hd__xnor2_1
X_0753_ _0242_ _0269_ _0299_ VGND VGND VPWR 
+ VPWR
+ _0087_ sky130_fd_sc_hd__nor3_1
X_0754_ \Dead_Time_Generator_inst_3.count_dt\[3] \Dead_Time_Generator_inst_3.count_dt\[2] _0298_ VGND VGND VPWR 
+ VPWR
+ _0300_ sky130_fd_sc_hd__nand3_1
X_0755_ \Dead_Time_Generator_inst_3.count_dt\[2] _0298_ \Dead_Time_Generator_inst_3.count_dt\[3] VGND VGND VPWR 
+ VPWR
+ _0301_ sky130_fd_sc_hd__a21o_1
X_0756_ _0243_ _0270_ _0300_ _0301_ VGND VGND 
+ VPWR
+ VPWR _0088_ sky130_fd_sc_hd__and4_1
X_0757_ _0190_ _0300_ _0269_ _0242_ VGND VGND 
+ VPWR
+ VPWR _0089_ sky130_fd_sc_hd__a211oi_1
X_0758_ _0243_ _0270_ _0279_ VGND VGND VPWR 
+ VPWR
+ _0090_ sky130_fd_sc_hd__a21boi_0
X_0759_ \Shift_Register_Inst.internal_data[16]\[0] d1[5] VGND VGND VPWR VPWR 
+ _0302_
+ sky130_fd_sc_hd__nand2b_1
X_0760_ \Shift_Register_Inst.internal_data[6]\[0] \Shift_Register_Inst.internal_data[5]\[0] VGND VGND VPWR VPWR 
+ _0303_
+ sky130_fd_sc_hd__nor2_1
X_0761_ \Signal_Generator_1_0phase_inst.count\[5] \Signal_Generator_1_90phase_inst.count\[5] \Signal_Generator_1_180phase_inst.count\[5] \Signal_Generator_1_270phase_inst.count\[5] \Shift_Register_Inst.internal_data[5]\[0] \Shift_Register_Inst.internal_data[6]\[0] 
+ VGND
+ VGND VPWR VPWR _0304_ sky130_fd_sc_hd__mux4_2
X_0762_ _0302_ _0304_ VGND VGND VPWR VPWR 
+ _0305_
+ sky130_fd_sc_hd__and2_0
X_0763_ _0302_ _0304_ VGND VGND VPWR VPWR 
+ _0306_
+ sky130_fd_sc_hd__nand2_1
X_0764_ \Shift_Register_Inst.internal_data[13]\[0] d1[1] VGND VGND VPWR VPWR 
+ _0307_
+ sky130_fd_sc_hd__nand2b_1
X_0765_ \Shift_Register_Inst.internal_data[6]\[0] \Shift_Register_Inst.internal_data[5]\[0] \Signal_Generator_1_270phase_inst.count\[1] VGND VGND VPWR 
+ VPWR
+ _0308_ sky130_fd_sc_hd__nand3_1
X_0766_ \Shift_Register_Inst.internal_data[6]\[0] \Shift_Register_Inst.internal_data[5]\[0] \Signal_Generator_1_90phase_inst.count\[1] VGND VGND VPWR 
+ VPWR
+ _0309_ sky130_fd_sc_hd__nand3b_1
X_0767_ \Shift_Register_Inst.internal_data[6]\[0] \Shift_Register_Inst.internal_data[5]\[0] \Signal_Generator_1_0phase_inst.count\[1] VGND VGND VPWR 
+ VPWR
+ _0310_ sky130_fd_sc_hd__or3b_1
X_0768_ \Shift_Register_Inst.internal_data[5]\[0] \Signal_Generator_1_180phase_inst.count\[1] \Shift_Register_Inst.internal_data[6]\[0] VGND VGND VPWR 
+ VPWR
+ _0311_ sky130_fd_sc_hd__nand3b_1
X_0769_ _0308_ _0309_ _0310_ _0311_ VGND VGND 
+ VPWR
+ VPWR _0312_ sky130_fd_sc_hd__nand4_1
X_0770_ \Signal_Generator_1_0phase_inst.count\[0] \Signal_Generator_1_90phase_inst.count\[0] \Signal_Generator_1_180phase_inst.count\[0] \Signal_Generator_1_270phase_inst.count\[0] \Shift_Register_Inst.internal_data[5]\[0] \Shift_Register_Inst.internal_data[6]\[0] 
+ VGND
+ VGND VPWR VPWR _0313_ sky130_fd_sc_hd__mux4_2
X_0771_ \Shift_Register_Inst.internal_data[13]\[0] _0200_ _0307_ _0312_ _0313_ VGND 
+ VGND
+ VPWR VPWR _0314_ sky130_fd_sc_hd__o221ai_1
X_0772_ \Shift_Register_Inst.internal_data[13]\[0] d1[2] VGND VGND VPWR VPWR 
+ _0315_
+ sky130_fd_sc_hd__nand2b_1
X_0773_ \Shift_Register_Inst.internal_data[6]\[0] \Shift_Register_Inst.internal_data[5]\[0] \Signal_Generator_1_270phase_inst.count\[2] VGND VGND VPWR 
+ VPWR
+ _0316_ sky130_fd_sc_hd__nand3_1
X_0774_ \Shift_Register_Inst.internal_data[6]\[0] \Shift_Register_Inst.internal_data[5]\[0] \Signal_Generator_1_90phase_inst.count\[2] VGND VGND VPWR 
+ VPWR
+ _0317_ sky130_fd_sc_hd__nand3b_1
X_0775_ \Shift_Register_Inst.internal_data[6]\[0] \Shift_Register_Inst.internal_data[5]\[0] \Signal_Generator_1_0phase_inst.count\[2] VGND VGND VPWR 
+ VPWR
+ _0318_ sky130_fd_sc_hd__or3b_1
X_0776_ \Shift_Register_Inst.internal_data[5]\[0] \Signal_Generator_1_180phase_inst.count\[2] \Shift_Register_Inst.internal_data[6]\[0] VGND VGND VPWR 
+ VPWR
+ _0319_ sky130_fd_sc_hd__nand3b_1
X_0777_ _0316_ _0317_ _0318_ _0319_ VGND VGND 
+ VPWR
+ VPWR _0320_ sky130_fd_sc_hd__nand4_1
X_0778_ _0307_ _0312_ _0315_ _0320_ VGND VGND 
+ VPWR
+ VPWR _0321_ sky130_fd_sc_hd__a22oi_1
X_0779_ \Shift_Register_Inst.internal_data[13]\[0] d1[3] VGND VGND VPWR VPWR 
+ _0322_
+ sky130_fd_sc_hd__nand2b_1
X_0780_ \Shift_Register_Inst.internal_data[6]\[0] \Shift_Register_Inst.internal_data[5]\[0] \Signal_Generator_1_0phase_inst.count\[3] VGND VGND VPWR 
+ VPWR
+ _0323_ sky130_fd_sc_hd__or3b_1
X_0781_ \Shift_Register_Inst.internal_data[6]\[0] \Shift_Register_Inst.internal_data[5]\[0] \Signal_Generator_1_90phase_inst.count\[3] VGND VGND VPWR 
+ VPWR
+ _0324_ sky130_fd_sc_hd__nand3b_1
X_0782_ \Shift_Register_Inst.internal_data[6]\[0] \Shift_Register_Inst.internal_data[5]\[0] \Signal_Generator_1_270phase_inst.count\[3] VGND VGND VPWR 
+ VPWR
+ _0325_ sky130_fd_sc_hd__nand3_1
X_0783_ \Shift_Register_Inst.internal_data[5]\[0] \Signal_Generator_1_180phase_inst.count\[3] \Shift_Register_Inst.internal_data[6]\[0] VGND VGND VPWR 
+ VPWR
+ _0326_ sky130_fd_sc_hd__nand3b_1
X_0784_ _0323_ _0324_ _0325_ _0326_ VGND VGND 
+ VPWR
+ VPWR _0327_ sky130_fd_sc_hd__nand4_1
X_0785_ _0315_ _0320_ _0322_ _0327_ VGND VGND 
+ VPWR
+ VPWR _0328_ sky130_fd_sc_hd__o22ai_1
X_0786_ _0314_ _0321_ _0328_ VGND VGND VPWR 
+ VPWR
+ _0329_ sky130_fd_sc_hd__a21oi_1
X_0787_ \Shift_Register_Inst.internal_data[16]\[0] d1[4] VGND VGND VPWR VPWR 
+ _0330_
+ sky130_fd_sc_hd__nand2b_1
X_0788_ \Shift_Register_Inst.internal_data[6]\[0] \Shift_Register_Inst.internal_data[5]\[0] \Signal_Generator_1_270phase_inst.count\[4] VGND VGND VPWR 
+ VPWR
+ _0331_ sky130_fd_sc_hd__nand3_1
X_0789_ \Shift_Register_Inst.internal_data[5]\[0] \Signal_Generator_1_180phase_inst.count\[4] \Shift_Register_Inst.internal_data[6]\[0] VGND VGND VPWR 
+ VPWR
+ _0332_ sky130_fd_sc_hd__nand3b_1
X_0790_ \Signal_Generator_1_0phase_inst.count\[4] _0303_ VGND VGND VPWR VPWR 
+ _0333_
+ sky130_fd_sc_hd__nand2_1
X_0791_ \Shift_Register_Inst.internal_data[6]\[0] \Shift_Register_Inst.internal_data[5]\[0] \Signal_Generator_1_90phase_inst.count\[4] VGND VGND VPWR 
+ VPWR
+ _0334_ sky130_fd_sc_hd__nand3b_1
X_0792_ _0331_ _0332_ _0333_ _0334_ VGND VGND 
+ VPWR
+ VPWR _0335_ sky130_fd_sc_hd__nand4_1
X_0793_ _0322_ _0327_ _0330_ _0335_ VGND VGND 
+ VPWR
+ VPWR _0336_ sky130_fd_sc_hd__a22o_1
X_0794_ _0302_ _0304_ _0330_ _0335_ VGND VGND 
+ VPWR
+ VPWR _0337_ sky130_fd_sc_hd__o22a_1
X_0795_ _0329_ _0336_ _0337_ VGND VGND VPWR 
+ VPWR
+ _0338_ sky130_fd_sc_hd__o21a_1
X_0796_ _0329_ _0336_ _0337_ VGND VGND VPWR 
+ VPWR
+ _0339_ sky130_fd_sc_hd__o21ai_0
X_0797_ _0182_ \Dead_Time_Generator_inst_2.count_dt\[4] VGND VGND VPWR VPWR 
+ _0340_
+ sky130_fd_sc_hd__nand2_1
X_0798_ \Shift_Register_Inst.internal_data[2]\[0] _0189_ VGND VGND VPWR VPWR 
+ _0341_
+ sky130_fd_sc_hd__nand2_1
X_0799_ \Shift_Register_Inst.internal_data[0]\[0] \Dead_Time_Generator_inst_2.count_dt\[0] VGND VGND VPWR VPWR 
+ _0342_
+ sky130_fd_sc_hd__lpflow_isobufsrc_1
X_0800_ \Shift_Register_Inst.internal_data[1]\[0] \Dead_Time_Generator_inst_2.count_dt\[1] VGND VGND VPWR VPWR 
+ _0343_
+ sky130_fd_sc_hd__lpflow_isobufsrc_1
X_0801_ \Shift_Register_Inst.internal_data[1]\[0] \Dead_Time_Generator_inst_2.count_dt\[1] VGND VGND VPWR VPWR 
+ _0344_
+ sky130_fd_sc_hd__nand2b_1
X_0802_ \Shift_Register_Inst.internal_data[2]\[0] _0189_ _0342_ _0343_ _0344_ VGND 
+ VGND
+ VPWR VPWR _0345_ sky130_fd_sc_hd__o221ai_1
X_0803_ _0183_ \Dead_Time_Generator_inst_2.count_dt\[3] _0341_ _0345_ VGND VGND 
+ VPWR
+ VPWR _0346_ sky130_fd_sc_hd__a22oi_1
X_0804_ _0182_ \Dead_Time_Generator_inst_2.count_dt\[4] \Dead_Time_Generator_inst_2.count_dt\[3] _0183_ VGND VGND 
+ VPWR
+ VPWR _0347_ sky130_fd_sc_hd__o22ai_1
X_0805_ _0346_ _0347_ _0340_ VGND VGND VPWR 
+ VPWR
+ _0348_ sky130_fd_sc_hd__o21ai_0
X_0806_ _0346_ _0347_ \Dead_Time_Generator_inst_2.count_dt\[0] _0340_ VGND VGND 
+ VPWR
+ VPWR _0349_ sky130_fd_sc_hd__o211ai_1
X_0807_ \Dead_Time_Generator_inst_2.count_dt\[0] _0348_ VGND VGND VPWR VPWR 
+ _0350_
+ sky130_fd_sc_hd__xor2_1
X_0808_ _0306_ _0339_ _0350_ VGND VGND VPWR 
+ VPWR
+ _0091_ sky130_fd_sc_hd__a21oi_1
X_0809_ _0346_ _0347_ \Dead_Time_Generator_inst_2.count_dt\[1] \Dead_Time_Generator_inst_2.count_dt\[0] _0340_ VGND 
+ VGND
+ VPWR VPWR _0351_ sky130_fd_sc_hd__o2111a_1
X_0810_ \Dead_Time_Generator_inst_2.count_dt\[1] _0349_ VGND VGND VPWR VPWR 
+ _0352_
+ sky130_fd_sc_hd__xor2_1
X_0811_ _0306_ _0339_ _0352_ VGND VGND VPWR 
+ VPWR
+ _0092_ sky130_fd_sc_hd__a21oi_1
X_0812_ \Dead_Time_Generator_inst_2.count_dt\[2] _0351_ VGND VGND VPWR VPWR 
+ _0353_
+ sky130_fd_sc_hd__xnor2_1
X_0813_ _0306_ _0339_ _0353_ VGND VGND VPWR 
+ VPWR
+ _0093_ sky130_fd_sc_hd__a21oi_1
X_0814_ \Dead_Time_Generator_inst_2.count_dt\[2] _0351_ \Dead_Time_Generator_inst_2.count_dt\[3] VGND VGND VPWR 
+ VPWR
+ _0354_ sky130_fd_sc_hd__a21oi_1
X_0815_ \Dead_Time_Generator_inst_2.count_dt\[3] \Dead_Time_Generator_inst_2.count_dt\[2] _0351_ VGND VGND VPWR 
+ VPWR
+ _0355_ sky130_fd_sc_hd__and3_1
X_0816_ _0306_ _0339_ _0354_ _0355_ VGND VGND 
+ VPWR
+ VPWR _0094_ sky130_fd_sc_hd__a211oi_1
X_0817_ _0305_ _0338_ _0355_ \Dead_Time_Generator_inst_2.count_dt\[4] VGND VGND 
+ VPWR
+ VPWR _0095_ sky130_fd_sc_hd__o22a_1
X_0818_ _0242_ _0269_ _0295_ VGND VGND VPWR 
+ VPWR
+ _0096_ sky130_fd_sc_hd__nor3_1
X_0819_ \Shift_Register_Inst.internal_data[4]\[0] _0185_ VGND VGND VPWR VPWR 
+ _0356_
+ sky130_fd_sc_hd__nor2_1
X_0820_ _0184_ \Dead_Time_Generator_inst_1.count_dt\[2] VGND VGND VPWR VPWR 
+ _0357_
+ sky130_fd_sc_hd__nor2_1
X_0821_ \Dead_Time_Generator_inst_1.count_dt\[0] \Shift_Register_Inst.internal_data[0]\[0] VGND VGND VPWR VPWR 
+ _0358_
+ sky130_fd_sc_hd__nand2b_1
X_0822_ \Dead_Time_Generator_inst_1.count_dt\[1] \Shift_Register_Inst.internal_data[1]\[0] VGND VGND VPWR VPWR 
+ _0359_
+ sky130_fd_sc_hd__nand2b_1
X_0823_ \Dead_Time_Generator_inst_1.count_dt\[1] \Shift_Register_Inst.internal_data[1]\[0] VGND VGND VPWR VPWR 
+ _0360_
+ sky130_fd_sc_hd__lpflow_isobufsrc_1
X_0824_ _0184_ \Dead_Time_Generator_inst_1.count_dt\[2] _0358_ _0359_ _0360_ VGND 
+ VGND
+ VPWR VPWR _0361_ sky130_fd_sc_hd__a221oi_1
X_0825_ \Shift_Register_Inst.internal_data[3]\[0] _0186_ _0357_ _0361_ VGND VGND 
+ VPWR
+ VPWR _0362_ sky130_fd_sc_hd__o22ai_1
X_0826_ \Shift_Register_Inst.internal_data[4]\[0] _0185_ _0186_ \Shift_Register_Inst.internal_data[3]\[0] VGND VGND 
+ VPWR
+ VPWR _0363_ sky130_fd_sc_hd__a22oi_1
X_0827_ _0362_ _0363_ _0356_ VGND VGND VPWR 
+ VPWR
+ _0364_ sky130_fd_sc_hd__a21oi_1
X_0828_ \Dead_Time_Generator_inst_1.count_dt\[0] _0364_ VGND VGND VPWR VPWR 
+ _0365_
+ sky130_fd_sc_hd__xnor2_1
X_0829_ _0305_ _0338_ _0365_ VGND VGND VPWR 
+ VPWR
+ _0097_ sky130_fd_sc_hd__nor3_1